@<TRIPOS>MOLECULE
*****
 6 5 0 0 0
SMALL
GASTEIGER

@<TRIPOS>ATOM
      1 C           1.1057    0.0178   -0.0171 C.3     1  LIG1        0.0330
      2 O           2.5213    0.0064   -0.0264 O.3     1  LIG1       -0.3982
      3 H           0.7455    0.9809   -0.3871 H       1  LIG1        0.0521
      4 H           0.7455   -0.1514    1.0007 H       1  LIG1        0.0521
      5 H           0.7398   -0.7799   -0.6679 H       1  LIG1        0.0521
      6 H           2.8166    0.7242    0.5592 H       1  LIG1        0.2090
@<TRIPOS>BOND
     1     1     2    1
     2     1     3    1
     3     1     4    1
     4     1     5    1
     5     2     6    1
