@<TRIPOS>MOLECULE
*****
 12 12 0 0 0
SMALL
GASTEIGER

@<TRIPOS>ATOM
      1 BR          1.0079    0.0780    0.1247 Br      1  LIG1       -0.0502
      2 C           2.8904    0.1013   -0.0478 C.ar    1  LIG1        0.0206
      3 C           3.5621    1.3188   -0.1157 C.ar    1  LIG1       -0.0125
      4 C           4.9455    1.3173   -0.2493 C.ar    1  LIG1        0.1244
      5 F           5.6010    2.4831   -0.3188 F       1  LIG1       -0.2055
      6 C           5.6625    0.1260   -0.3136 C.ar    1  LIG1       -0.0264
      7 C           4.9848   -1.0904   -0.2415 C.ar    1  LIG1       -0.0580
      8 C           3.5943   -1.1037   -0.1087 C.ar    1  LIG1       -0.0476
      9 H           3.0322    2.2640   -0.0681 H       1  LIG1        0.0657
     10 H           6.7426    0.1550   -0.4196 H       1  LIG1        0.0646
     11 H           5.5367   -2.0258   -0.2897 H       1  LIG1        0.0619
     12 H           3.0700   -2.0546   -0.0546 H       1  LIG1        0.0629
@<TRIPOS>BOND
     1     1     2    1
     2     2     3   ar
     3     3     4   ar
     4     4     5    1
     5     4     6   ar
     6     6     7   ar
     7     7     8   ar
     8     2     8   ar
     9     3     9    1
    10     6    10    1
    11     7    11    1
    12     8    12    1
