@<TRIPOS>MOLECULE
*****
 12 12 0 0 0
SMALL
GASTEIGER

@<TRIPOS>ATOM
      1 BR          0.9991    0.0803    0.1295 Br      1  LIG1       -0.0503
      2 C           2.8820    0.1014   -0.0402 C.ar    1  LIG1        0.0179
      3 C           3.5573    1.3195   -0.1026 C.ar    1  LIG1       -0.0478
      4 C           4.9466    1.3334   -0.2343 C.ar    1  LIG1       -0.0607
      5 C           5.6536    0.1320   -0.3014 C.ar    1  LIG1       -0.0617
      6 C           4.9736   -1.0845   -0.2350 C.ar    1  LIG1       -0.0607
      7 C           3.5842   -1.1018   -0.1044 C.ar    1  LIG1       -0.0478
      8 H           3.0135    2.2588   -0.0508 H       1  LIG1        0.0629
      9 H           5.4780    2.2803   -0.2855 H       1  LIG1        0.0618
     10 H           6.7358    0.1442   -0.4058 H       1  LIG1        0.0619
     11 H           5.5259   -2.0194   -0.2859 H       1  LIG1        0.0618
     12 H           3.0612   -2.0529   -0.0547 H       1  LIG1        0.0629
@<TRIPOS>BOND
     1     1     2    1
     2     2     3   ar
     3     3     4   ar
     4     4     5   ar
     5     5     6   ar
     6     6     7   ar
     7     2     7   ar
     8     3     8    1
     9     4     9    1
    10     5    10    1
    11     6    11    1
    12     7    12    1
